/*--------------------------------*- C++ -*----------------------------------*\
| =========                 |                                                 |
| \\      /  F ield         | OpenFOAM: The Open Source CFD Toolbox           |
|  \\    /   O peration     | Version:  1.7.1                                 |
|   \\  /    A nd           | Web:      www.OpenFOAM.com                      |
|    \\/     M anipulation  |                                                 |
\*---------------------------------------------------------------------------*/
FoamFile
{
    version     2.0;
    format      ascii;
    class       dictionary;
    object      blockMeshDict;
}
// * * * * * * * * * * * * * * * * * * * * * * * * * * * * * * * * * * * * * //

convertToMeters 1;

vertices        
(
    (0 0 -1)
    (174 0 -1)
    (174 0.5 -1)
    (0 0.5 -1)
    (0 0 0)
    (174 0 0)
    (174 0.5 0)
    (0 0.5 0)
);

blocks          
(
    hex (0 1 2 3 4 5 6 7) (100 1 50) simpleGrading (1 1 1)
);  

edges           
(
);

boundary
(
    seaBed
    {
          type wall;
          faces
         (
	  (4 5 6 7)	
         );
    }
     
     frontBack
    {
          type empty;
          faces
         (
	  (3 7 6 2)
          (0 1 5 4)	
         );
    }  
    
    soilDomainBottom
    {
          type wall;
          faces
         (
	  (0 3 2 1 )	
         );
    } 
    
    sides
    {
         type cyclic;
         faces
        (
            (0 4 7 3)
            (1 5 6 2)
        );
          
    }
     


);


mergePatchPairs 
(
);

// ************************************************************************* //
